LAMMPS (2 Aug 2023)
units metal
atom_style atomic
read_data init.lmp
Reading data file ...
  orthogonal box = (0 0 0) to (12.097072 12.097072 12.097072)
  reading atoms ...
  188 atoms

pair_style deepmd  "../graph_000.pb" "../graph_001.pb" "../graph_002.pb" "../graph_003.pb" out_file md.out out_freq 100
Summary of lammps deepmd module ...
  >>> Info of deepmd-kit:
  installed to:       /leonardo/home/userexternal/cmalosso/deepmd/deepmd_root
  source:             v2.2.3
  source branch:       master
  source commit:      53a1078c
  source commit at:   2023-08-08 11:52:54 +0800
  surpport model ver.:1.1
  build variant:      cuda
  build with tf inc:  /leonardo/home/userexternal/cmalosso/deepmd/venv_v2.2.3/lib/python3.10/site-packages/tensorflow/include;/leonardo/home/userexternal/cmalosso/deepmd/venv_v2.2.3/lib/python3.10/site-packages/tensorflow/include
  build with tf lib:  /leonardo/home/userexternal/cmalosso/deepmd/venv_v2.2.3/lib/python3.10/site-packages/tensorflow/libtensorflow_cc.so.2
  set tf intra_op_parallelism_threads: 0
  set tf inter_op_parallelism_threads: 0
  >>> Info of lammps module:
  use deepmd-kit at:  /leonardo/home/userexternal/cmalosso/deepmd/deepmd_root
  source:             v2.2.3
  source branch:      master
  source commit:      53a1078c
  source commit at:   2023-08-08 11:52:54 +0800
  build float prec:   double
  build with tf inc:  /leonardo/home/userexternal/cmalosso/deepmd/venv_v2.2.3/lib/python3.10/site-packages/tensorflow/include;/leonardo/home/userexternal/cmalosso/deepmd/venv_v2.2.3/lib/python3.10/site-packages/tensorflow/include
  build with tf lib:  /leonardo/home/userexternal/cmalosso/deepmd/venv_v2.2.3/lib/python3.10/site-packages/tensorflow/libtensorflow_cc.so.2
pair_coeff * *

mass 1 15.999  # O
mass 2 1.00794 # H
mass 3 22.9898 # Na
mass 4 35.45   # Cl

neighbor        2.0 bin
neigh_modify    every 10 delay 0 check no

timestep 0.2e-3

thermo 50
thermo_style custom step time ke pe etotal temp press density vol

velocity all create 500 87234 rot yes dist gaussian

fix 		1 all npt temp 800.0 800.0 0.02 iso 1.0 1.0 0.2

run             50000

CITE-CITE-CITE-CITE-CITE-CITE-CITE-CITE-CITE-CITE-CITE-CITE-CITE

Your simulation uses code contributions which should be cited:

- USER-DEEPMD package:

@article{Wang_ComputPhysCommun_2018_v228_p178,
  author = {Wang, Han and Zhang, Linfeng and Han, Jiequn and E, Weinan},
  doi = {10.1016/j.cpc.2018.03.016},
  url = {https://doi.org/10.1016/j.cpc.2018.03.016},
  year = 2018,
  month = {jul},
  publisher = {Elsevier {BV}},
  volume = 228,
  journal = {Comput. Phys. Commun.},
  title = {{DeePMD-kit: A deep learning package for many-body potential energy representation and molecular dynamics}},
  pages = {178--184}
}
@misc{Zeng_JChemPhys_2023_v159_p054801,
  title  = {{DeePMD-kit v2: A software package for deep potential models}},
  author =   {Jinzhe Zeng and Duo Zhang and Denghui Lu and Pinghui Mo and Zeyu Li
         and Yixiao Chen and Mari{\'a}n Rynik and Li'ang Huang and Ziyao Li and
         Shaochen Shi and Yingze Wang and Haotian Ye and Ping Tuo and Jiabin
         Yang and Ye Ding and Yifan Li and Davide Tisi and Qiyu Zeng and Han
         Bao and Yu Xia and Jiameng Huang and Koki Muraoka and Yibo Wang and
         Junhan Chang and Fengbo Yuan and Sigbj{\o}rn L{\o}land Bore and Chun
         Cai and Yinnian Lin and Bo Wang and Jiayan Xu and Jia-Xin Zhu and
         Chenxing Luo and Yuzhi Zhang and Rhys E A Goodall and Wenshuo Liang
         and Anurag Kumar Singh and Sikai Yao and Jingchao Zhang and Renata
         Wentzcovitch and Jiequn Han and Jie Liu and Weile Jia and Darrin M
         York and Weinan E and Roberto Car and Linfeng Zhang and Han Wang},
  journal =  {J. Chem. Phys.},
  volume =   159,
  issue =    5,
  year =    2023,
  pages  =   054801,
  doi =      {10.1063/5.0155600},
}

CITE-CITE-CITE-CITE-CITE-CITE-CITE-CITE-CITE-CITE-CITE-CITE-CITE

Generated 0 of 6 mixed pair_coeff terms from geometric mixing rule
Step          Time          KinEng         PotEng         TotEng          Temp          Press         Density         Volume
0   0              12.085824     -30554.94      -30542.854      500            1657.3982      1.1025038      1770.2751
Averages over the last 501 of 1001 rows, steps 25000 to 50000:
KinEng PotEng TotEng Temp Press Density Volume
19.393 -30523.3 -30503.9 802.304 34.5206 0.158169 45237.2
Loop time of 252.847 on 1 procs for 50000 steps with 188 atoms

unfix 1

fix 2 all nve
run 500000
Generated 0 of 6 mixed pair_coeff terms from geometric mixing rule
Step          Time          KinEng         PotEng         TotEng          Temp          Press         Density         Volume
50000   10             17.318465     -30517.652     -30500.334      716.47849      50.769167      0.010013847    194903.61
Averages over the last 3971 of 7941 rows, steps 248500 to 447000:
KinEng PotEng TotEng Temp Press Density Volume
17.6372 -30518 -30500.3 729.666 23.3968 0.0100138 194904
